@<TRIPOS>MOLECULE
lig
 9 8 0 0 0
SMALL
GASTEIGER

@<TRIPOS>ATOM
      1 C           1.3363   -0.5166   -0.4467 C.3     1  UNL11       0.0119
      2 C          -0.0348   -0.1671   -0.0866 C.2     1  UNL11       0.2074
      3 O          -0.3130    1.0035    0.2522 O.2     1  UNL11      -0.2763
      4 N          -0.9949   -1.1013   -0.1192 N.am    1  UNL11      -0.3295
      5 H           1.9947   -0.3240    0.4003 H       1  UNL11       0.0322
      6 H           1.3844   -1.5728   -0.7116 H       1  UNL11       0.0322
      7 H           1.6533    0.0863   -1.2977 H       1  UNL11       0.0322
      8 H          -1.9058   -0.8692    0.1200 H       1  UNL11       0.1449
      9 H          -0.7790   -2.0097   -0.3821 H       1  UNL11       0.1449
@<TRIPOS>BOND
     1     1     2    1
     2     2     3    2
     3     2     4   am
     4     1     5    1
     5     1     6    1
     6     1     7    1
     7     4     8    1
     8     4     9    1
